pentane conformer 188
     RDKit          3D

 17 16  0  0  0  0  0  0  0  0999 V2000
   -2.4959    0.0075    0.3430 C   0  0  0  0  0  0  0  0  0  0  0  0
   -1.2947   -0.0209   -0.5885 C   0  0  0  0  0  0  0  0  0  0  0  0
    0.0196    0.0108    0.1911 C   0  0  0  0  0  0  0  0  0  0  0  0
    1.2244   -0.0178   -0.7490 C   0  0  0  0  0  0  0  0  0  0  0  0
    2.5341    0.0136    0.0226 C   0  0  0  0  0  0  0  0  0  0  0  0
   -3.4248   -0.0159   -0.2354 H   0  0  0  0  0  0  0  0  0  0  0  0
   -2.4921   -0.8570    1.0146 H   0  0  0  0  0  0  0  0  0  0  0  0
   -2.4982    0.9166    0.9528 H   0  0  0  0  0  0  0  0  0  0  0  0
   -1.3398   -0.9256   -1.2060 H   0  0  0  0  0  0  0  0  0  0  0  0
   -1.3459    0.8383   -1.2674 H   0  0  0  0  0  0  0  0  0  0  0  0
    0.0580    0.9154    0.8103 H   0  0  0  0  0  0  0  0  0  0  0  0
    0.0640   -0.8482    0.8717 H   0  0  0  0  0  0  0  0  0  0  0  0
    1.1931   -0.9225   -1.3673 H   0  0  0  0  0  0  0  0  0  0  0  0
    1.1870    0.8414   -1.4288 H   0  0  0  0  0  0  0  0  0  0  0  0
    2.6115    0.9228    0.6273 H   0  0  0  0  0  0  0  0  0  0  0  0
    2.6176   -0.8508    0.6891 H   0  0  0  0  0  0  0  0  0  0  0  0
    3.3821   -0.0076   -0.6690 H   0  0  0  0  0  0  0  0  0  0  0  0
  1  2  1  0
  2  3  1  0
  3  4  1  0
  4  5  1  0
  1  6  1  0
  1  7  1  0
  1  8  1  0
  2  9  1  0
  2 10  1  0
  3 11  1  0
  3 12  1  0
  4 13  1  0
  4 14  1  0
  5 15  1  0
  5 16  1  0
  5 17  1  0
M  END
>  <Energy>  (1) 
-5.271752450708867

$$$$
pentane conformer 92
     RDKit          3D

 17 16  0  0  0  0  0  0  0  0999 V2000
    2.3485    0.5435    0.0618 C   0  0  0  0  0  0  0  0  0  0  0  0
    0.8619    0.6013   -0.2555 C   0  0  0  0  0  0  0  0  0  0  0  0
    0.1842   -0.7450    0.0030 C   0  0  0  0  0  0  0  0  0  0  0  0
   -1.2915   -0.7681   -0.4005 C   0  0  0  0  0  0  0  0  0  0  0  0
   -2.1638    0.1575    0.4334 C   0  0  0  0  0  0  0  0  0  0  0  0
    2.5155    0.2843    1.1121 H   0  0  0  0  0  0  0  0  0  0  0  0
    2.8544   -0.2010   -0.5611 H   0  0  0  0  0  0  0  0  0  0  0  0
    2.8141    1.5161   -0.1264 H   0  0  0  0  0  0  0  0  0  0  0  0
    0.4028    1.3830    0.3590 H   0  0  0  0  0  0  0  0  0  0  0  0
    0.7296    0.8900   -1.3045 H   0  0  0  0  0  0  0  0  0  0  0  0
    0.2798   -1.0103    1.0630 H   0  0  0  0  0  0  0  0  0  0  0  0
    0.7068   -1.5244   -0.5655 H   0  0  0  0  0  0  0  0  0  0  0  0
   -1.6657   -1.7928   -0.2888 H   0  0  0  0  0  0  0  0  0  0  0  0
   -1.3929   -0.5080   -1.4606 H   0  0  0  0  0  0  0  0  0  0  0  0
   -3.2165    0.0253    0.1635 H   0  0  0  0  0  0  0  0  0  0  0  0
   -1.9091    1.2080    0.2659 H   0  0  0  0  0  0  0  0  0  0  0  0
   -2.0584   -0.0591    1.5012 H   0  0  0  0  0  0  0  0  0  0  0  0
  1  2  1  0
  2  3  1  0
  3  4  1  0
  4  5  1  0
  1  6  1  0
  1  7  1  0
  1  8  1  0
  2  9  1  0
  2 10  1  0
  3 11  1  0
  3 12  1  0
  4 13  1  0
  4 14  1  0
  5 15  1  0
  5 16  1  0
  5 17  1  0
M  END
>  <Energy>  (2) 
-4.441838202831899

$$$$
pentane conformer 110
     RDKit          3D

 17 16  0  0  0  0  0  0  0  0999 V2000
    1.8576    0.1698   -0.7503 C   0  0  0  0  0  0  0  0  0  0  0  0
    0.9561    0.8530    0.2660 C   0  0  0  0  0  0  0  0  0  0  0  0
    0.0365   -0.1142    1.0154 C   0  0  0  0  0  0  0  0  0  0  0  0
   -0.9376   -0.9109    0.1441 C   0  0  0  0  0  0  0  0  0  0  0  0
   -1.8997   -0.0378   -0.6460 C   0  0  0  0  0  0  0  0  0  0  0  0
    2.5579    0.8944   -1.1780 H   0  0  0  0  0  0  0  0  0  0  0  0
    2.4410   -0.6300   -0.2834 H   0  0  0  0  0  0  0  0  0  0  0  0
    1.2799   -0.2581   -1.5749 H   0  0  0  0  0  0  0  0  0  0  0  0
    1.5876    1.3662    1.0014 H   0  0  0  0  0  0  0  0  0  0  0  0
    0.3676    1.6316   -0.2314 H   0  0  0  0  0  0  0  0  0  0  0  0
   -0.5362    0.4569    1.7570 H   0  0  0  0  0  0  0  0  0  0  0  0
    0.6530   -0.8228    1.5825 H   0  0  0  0  0  0  0  0  0  0  0  0
   -0.3888   -1.5651   -0.5421 H   0  0  0  0  0  0  0  0  0  0  0  0
   -1.5225   -1.5701    0.7971 H   0  0  0  0  0  0  0  0  0  0  0  0
   -2.6320   -0.6626   -1.1674 H   0  0  0  0  0  0  0  0  0  0  0  0
   -2.4453    0.6435    0.0145 H   0  0  0  0  0  0  0  0  0  0  0  0
   -1.3751    0.5561   -1.4002 H   0  0  0  0  0  0  0  0  0  0  0  0
  1  2  1  0
  2  3  1  0
  3  4  1  0
  4  5  1  0
  1  6  1  0
  1  7  1  0
  1  8  1  0
  2  9  1  0
  2 10  1  0
  3 11  1  0
  3 12  1  0
  4 13  1  0
  4 14  1  0
  5 15  1  0
  5 16  1  0
  5 17  1  0
M  END
>  <Energy>  (3) 
-3.848581677999793

$$$$
pentane conformer 86
     RDKit          3D

 17 16  0  0  0  0  0  0  0  0999 V2000
    1.5731    0.5256   -0.8494 C   0  0  0  0  0  0  0  0  0  0  0  0
    1.3288   -0.7166   -0.0107 C   0  0  0  0  0  0  0  0  0  0  0  0
    0.1047   -0.6337    0.9057 C   0  0  0  0  0  0  0  0  0  0  0  0
   -1.2370   -0.5217    0.1761 C   0  0  0  0  0  0  0  0  0  0  0  0
   -1.7202    0.9130    0.0203 C   0  0  0  0  0  0  0  0  0  0  0  0
    0.8049    0.6425   -1.6189 H   0  0  0  0  0  0  0  0  0  0  0  0
    1.5910    1.4261   -0.2279 H   0  0  0  0  0  0  0  0  0  0  0  0
    2.5379    0.4484   -1.3612 H   0  0  0  0  0  0  0  0  0  0  0  0
    2.2125   -0.8909    0.6152 H   0  0  0  0  0  0  0  0  0  0  0  0
    1.2383   -1.5868   -0.6715 H   0  0  0  0  0  0  0  0  0  0  0  0
    0.2260    0.1867    1.6231 H   0  0  0  0  0  0  0  0  0  0  0  0
    0.0874   -1.5582    1.4976 H   0  0  0  0  0  0  0  0  0  0  0  0
   -1.1908   -1.0119   -0.8028 H   0  0  0  0  0  0  0  0  0  0  0  0
   -1.9932   -1.0602    0.7608 H   0  0  0  0  0  0  0  0  0  0  0  0
   -2.6990    0.9274   -0.4700 H   0  0  0  0  0  0  0  0  0  0  0  0
   -1.0365    1.5140   -0.5831 H   0  0  0  0  0  0  0  0  0  0  0  0
   -1.8280    1.3963    0.9968 H   0  0  0  0  0  0  0  0  0  0  0  0
  1  2  1  0
  2  3  1  0
  3  4  1  0
  4  5  1  0
  1  6  1  0
  1  7  1  0
  1  8  1  0
  2  9  1  0
  2 10  1  0
  3 11  1  0
  3 12  1  0
  4 13  1  0
  4 14  1  0
  5 15  1  0
  5 16  1  0
  5 17  1  0
M  END
>  <Energy>  (4) 
-1.5717219062088852

$$$$
